docs/examples/data/serialized_input.json
{
    "attributes": {
        "node": [
            "id",
            "u_rated"
        ],
        "sym_load": [
            "id",
            "node",
            "status",
            "type",
            "p_specified",
            "q_specified"
        ],
        "source": [
            "id",
            "node",
            "status",
            "u_ref",
            "sk"
        ]
    },
    "data": {
        "node": [
            [
                1,
                10.5e3
            ],
            [
                2,
                10.5e3
            ],
            [
                3,
                10.5e3
            ]
        ],
        "line": [
            {
                "id": 4,
                "from_node": 1,
                "to_node": 2,
                "from_status": 1,
                "to_status": 1,
                "r1": 0.11,
                "x1": 0.12,
                "c1": 4e-05,
                "tan1": 0.1,
                "i_n": 500.0
            },
            {
                "id": 5,
                "from_node": 2,
                "to_node": 3,
                "from_status": 1,
                "to_status": 1,
                "r1": 0.15,
                "x1": 0.16,
                "c1": 5e-05,
                "tan1": 0.12,
                "i_n": 550.0
            }
        ],
        "source": [
            [
                15,
                1,
                1,
                1.03,
                1e20
            ],
            [
                16,
                1,
                1,
                1.04,
                null
            ],
            {
                "id": 17,
                "node": 1,
                "status": 1,
                "u_ref": 1.03,
                "sk": 1e10,
                "rx_ratio": 0.2
            }
        ],
        "sym_load": [
            [
                7,
                2,
                1,
                0,
                1.01e6,
                0.21e6
            ],
            [
                8,
                3,
                1,
                0,
                1.02e6,
                0.22e6
            ]
        ]
    },
    "is_batch": false,
    "type": "input",
    "version": "1.0"
}